
**** 09/17/24 22:28:31 **** PSpice 22.1.0 (6 October 2022) **** ID# 0 ********

 ** Profile: "SCHEMATIC1-TAsk2"  [ C:\Users\Asad Ur Rehman\Desktop\DC_DC_Converters\Task_2\Task2-PSpiceFiles\SCHEMATIC1\TAsk2.sim ] 


 ****     CIRCUIT DESCRIPTION


******************************************************************************




** Creating circuit file "TAsk2.cir" 
** WARNING: THIS AUTOMATICALLY GENERATED FILE MAY BE OVERWRITTEN BY SUBSEQUENT SIMULATIONS

*Libraries: 
* Profile Libraries :
* Local Libraries :
* From [PSPICE NETLIST] section of C:\Users\Asad Ur Rehman\AppData\Roaming\SPB_16.6\cdssetup\OrCAD_PSpice\22.1.0\PSpice.ini file:
.lib "C:\Users\Asad Ur Rehman\Desktop\ELEC4170_Fall_2024.lib" 
.lib "nom.lib" 

*Analysis directives: 
.TRAN  0 40m 0 1e-6 SKIPBP 
.OPTIONS ADVCONV
.PROBE64 V(alias(*)) I(alias(*)) W(alias(*)) D(alias(*)) NOISE(alias(*)) 
.INC "..\SCHEMATIC1.net" 



**** INCLUDING SCHEMATIC1.net ****
* source TASK2
X_U3         N02733 N02889 N02817 0 AIGBT 
X_U9         N03337 N03341 N02841 PWM PARAMS:  VPOS=15 VNEG=-15
X_U6         N02889 N02733 ADIODE 
X_U8         0 N02901 ADIODE 
X_U4         N02889 0 0 N02817 AIGBT 
X_U5         N02901 N02733 ADIODE 
X_U1         N02733 N02901 N02841 0 AIGBT 
X_U10         N03329 N03341 N02817 PWM PARAMS:  VPOS=15 VNEG=-15
X_U2         N02901 0 0 N02841 AIGBT 
X_U11         N03341 TRIWAV PARAMS:  DELAY=0 DT=1US PERIOD=1MS LEVEL=1V
R_R1         N02889 N02901  1k TC=0,0 
X_U7         0 N02889 ADIODE 
V_V1         N02733 0 220Vdc
V_V4         N03337 0  AC 0
+SIN 0 1 60 0 0 0
V_V5         N03329 0  AC 0
+SIN 0 -1 60 0 0 0

**** RESUMING TAsk2.cir ****
.END

**** 09/17/24 22:28:31 **** PSpice 22.1.0 (6 October 2022) **** ID# 0 ********

 ** Profile: "SCHEMATIC1-TAsk2"  [ C:\Users\Asad Ur Rehman\Desktop\DC_DC_Converters\Task_2\Task2-PSpiceFiles\SCHEMATIC1\TAsk2.sim ] 


 ****     Diode MODEL PARAMETERS


******************************************************************************




               X_U6.diode      X_U8.diode      X_U5.diode      X_U7.diode      
          IS   10.000000E-15   10.000000E-15   10.000000E-15   10.000000E-15 
           N    1.000000E-03    1.000000E-03    1.000000E-03    1.000000E-03 
          RS    1.000000E-03    1.000000E-03    1.000000E-03    1.000000E-03 
         CJO  100.000000E-15  100.000000E-15  100.000000E-15  100.000000E-15 


**** 09/17/24 22:28:31 **** PSpice 22.1.0 (6 October 2022) **** ID# 0 ********

 ** Profile: "SCHEMATIC1-TAsk2"  [ C:\Users\Asad Ur Rehman\Desktop\DC_DC_Converters\Task_2\Task2-PSpiceFiles\SCHEMATIC1\TAsk2.sim ] 


 ****     Voltage Controlled Switch MODEL PARAMETERS


******************************************************************************




               X_U3.igbt       X_U4.igbt       X_U1.igbt       X_U2.igbt       
         RON    1.000000E-03    1.000000E-03    1.000000E-03    1.000000E-03 
        ROFF  100.000000E+03  100.000000E+03  100.000000E+03  100.000000E+03 
         VON     .1              .1              .1              .1          
        VOFF    0               0               0               0            


WARNING(ORPSIM-15452): Pulse Period < (Rise Time + Fall Time + Pulse Width) for X_U11.VRAMP.

WARNING(ORPSIM-15452): Pulse Period < (Rise Time + Fall Time + Pulse Width) for X_U11.VRAMP.


          JOB CONCLUDED

**** 09/17/24 22:28:31 **** PSpice 22.1.0 (6 October 2022) **** ID# 0 ********

 ** Profile: "SCHEMATIC1-TAsk2"  [ C:\Users\Asad Ur Rehman\Desktop\DC_DC_Converters\Task_2\Task2-PSpiceFiles\SCHEMATIC1\TAsk2.sim ] 


 ****     JOB STATISTICS SUMMARY


******************************************************************************



  License check-out time            =       31.31
  Total job time (using Solver 1)   =        7.52
