
**** 09/06/24 10:45:10 ****** PSpice Lite (October 2012) ****** ID# 10813 ****

 ** Profile: "SCHEMATIC1-Task1"  [ C:\Users\Asad Ur Rehman\Desktop\OrCAD_Tasks\Task1\Task1-PSpiceFiles\SCHEMATIC1\Task1.sim ] 


 ****     CIRCUIT DESCRIPTION


******************************************************************************




** Creating circuit file "Task1.cir" 
** WARNING: THIS AUTOMATICALLY GENERATED FILE MAY BE OVERWRITTEN BY SUBSEQUENT SIMULATIONS

*Libraries: 
* Profile Libraries :
* Local Libraries :
* From [PSPICE NETLIST] section of C:\Users\Asad Ur Rehman\AppData\Roaming\SPB_16.6\cdssetup\OrCAD_PSpice/16.6.0/PSpice.ini file:
.lib "nomd.lib" 

*Analysis directives: 
.TRAN  0 1000ns 0.1 0.0001 
.OPTIONS ADVCONV
.PROBE64 V(alias(*)) I(alias(*)) W(alias(*)) D(alias(*)) NOISE(alias(*)) 
.INC "..\SCHEMATIC1.net" 



**** INCLUDING SCHEMATIC1.net ****
* source TASK1
R_R1         0 N00111  1k TC=0,0 
D_D1         N00106 N00111 D1N3940 
V_V1         N00106 0  
+SIN 0 220 60 0 0 0

**** RESUMING Task1.cir ****
.END

**** 09/06/24 10:45:10 ****** PSpice Lite (October 2012) ****** ID# 10813 ****

 ** Profile: "SCHEMATIC1-Task1"  [ C:\Users\Asad Ur Rehman\Desktop\OrCAD_Tasks\Task1\Task1-PSpiceFiles\SCHEMATIC1\Task1.sim ] 


 ****     Diode MODEL PARAMETERS


******************************************************************************




               D1N3940         
          IS  400.000000E-12 
           N    1.48         
          BV  600            
         IBV  100.000000E-06 
          RS     .105        
          TT  800.000000E-09 
         CJO   19.500000E-12 
          VJ     .4          
           M     .38         
          FC     .9          
          EG    1.36         
         XTI   -8            


ERROR(ORPSIM-15413): Transient Stop time 1e-006 s is less than Print Start time 0.1 s.


ABORTING SIMULATION
**** 09/06/24 10:45:10 ****** PSpice Lite (October 2012) ****** ID# 10813 ****

 ** Profile: "SCHEMATIC1-Task1"  [ C:\Users\Asad Ur Rehman\Desktop\OrCAD_Tasks\Task1\Task1-PSpiceFiles\SCHEMATIC1\Task1.sim ] 


 ****     JOB STATISTICS SUMMARY


******************************************************************************



Node counts:
  Top level (NUNODS)                =           3
  External (NCNODS)                 =           3
  Total (NUMNOD)                    =           4

Total device count (NUMEL)          =           3
  Diodes (D)                        =           1
  Resistors (R)                     =           1
  Voltage Sources (V)               =           1

Number of subcircuits (X)           =           0

Matrix statistics:
  Matrix size (NSTOP)               =           5
  Initial no. elements (NTTAR)      =           9
  No. elements w/ fillin (NTTBR)    =           9
  No. fillins (IFILL)               =           0
  No. overflows (NTTOV)             =           0
  No. LU operations (IOPS)          =           0
  Percent sparsity (PERSPA)         =      64.000

Analysis statistics:
  No. total time points (NUMTTP)    =           0
  No. rejected time points (NUMRTP) =           0
  No. iterations (NUMNIT)           =           0

Load Threads                        =           1

Runtime statistics:                       Seconds      Iterations
  Matrix load                       =        0.00
  Matrix solution                   =        0.00               1
  Readin                            =        0.00
  General setup                     =         .02
  CMI setup                     =        0.00
  Setup                             =        0.00
  DC sweep                          =        0.00               0
  Bias point                        =        0.00               0
  AC and noise                      =        0.00               0
  Total transient analysis          =        0.00
  Output                            =        0.00
  Overhead                          =        0.00
  Total job time (using Solver 1)   =         .03
