
**** 09/06/24 11:03:07 ****** PSpice Lite (October 2012) ****** ID# 10813 ****

 ** Profile: "SCHEMATIC1-Task1"  [ C:\Users\Asad Ur Rehman\Desktop\OrCAD_Tasks\Task1\Task1-PSpiceFiles\SCHEMATIC1\Task1.sim ] 


 ****     CIRCUIT DESCRIPTION


******************************************************************************




** Creating circuit file "Task1.cir" 
** WARNING: THIS AUTOMATICALLY GENERATED FILE MAY BE OVERWRITTEN BY SUBSEQUENT SIMULATIONS

*Libraries: 
* Profile Libraries :
* Local Libraries :
* From [PSPICE NETLIST] section of C:\Users\Asad Ur Rehman\AppData\Roaming\SPB_16.6\cdssetup\OrCAD_PSpice/16.6.0/PSpice.ini file:
.lib "nomd.lib" 

*Analysis directives: 
.TRAN  0 0.2 0.1 0.0001 
.OPTIONS ADVCONV
.PROBE64 V(alias(*)) I(alias(*)) W(alias(*)) D(alias(*)) NOISE(alias(*)) 
.INC "..\SCHEMATIC1.net" 



**** INCLUDING SCHEMATIC1.net ****
* source TASK1
R_R1         0 N00111  30 TC=0,0 
D_D1         N00106 N00111 D1N3940 
V_V1         N00106 0  
+SIN 0 220 60 0 0 0
C_C1         0 N00111  900uF  TC=0,0 

**** RESUMING Task1.cir ****
.END

**** 09/06/24 11:03:07 ****** PSpice Lite (October 2012) ****** ID# 10813 ****

 ** Profile: "SCHEMATIC1-Task1"  [ C:\Users\Asad Ur Rehman\Desktop\OrCAD_Tasks\Task1\Task1-PSpiceFiles\SCHEMATIC1\Task1.sim ] 


 ****     Diode MODEL PARAMETERS


******************************************************************************




               D1N3940         
          IS  400.000000E-12 
           N    1.48         
          BV  600            
         IBV  100.000000E-06 
          RS     .105        
          TT  800.000000E-09 
         CJO   19.500000E-12 
          VJ     .4          
           M     .38         
          FC     .9          
          EG    1.36         
         XTI   -8            


**** 09/06/24 11:03:07 ****** PSpice Lite (October 2012) ****** ID# 10813 ****

 ** Profile: "SCHEMATIC1-Task1"  [ C:\Users\Asad Ur Rehman\Desktop\OrCAD_Tasks\Task1\Task1-PSpiceFiles\SCHEMATIC1\Task1.sim ] 


 ****     INITIAL TRANSIENT SOLUTION       TEMPERATURE =   27.000 DEG C


******************************************************************************



 NODE   VOLTAGE     NODE   VOLTAGE     NODE   VOLTAGE     NODE   VOLTAGE


(N00106)    0.0000 (N00111)-23.12E-24 




    VOLTAGE SOURCE CURRENTS
    NAME         CURRENT

    V_V1         7.707E-25

    TOTAL POWER DISSIPATION   0.00E+00  WATTS



          JOB CONCLUDED

**** 09/06/24 11:03:07 ****** PSpice Lite (October 2012) ****** ID# 10813 ****

 ** Profile: "SCHEMATIC1-Task1"  [ C:\Users\Asad Ur Rehman\Desktop\OrCAD_Tasks\Task1\Task1-PSpiceFiles\SCHEMATIC1\Task1.sim ] 


 ****     JOB STATISTICS SUMMARY


******************************************************************************



  Total job time (using Solver 1)   =         .19
