
**** 09/25/24 12:11:56 **** PSpice 22.1.0 (6 October 2022) **** ID# 0 ********

 ** Profile: "SCHEMATIC1-Task_1"  [ c:\users\asad ur rehman\desktop\mid_term\task_1\task_1-PSpiceFiles\SCHEMATIC1\Task_1.sim ] 


 ****     CIRCUIT DESCRIPTION


******************************************************************************




** Creating circuit file "Task_1.cir" 
** WARNING: THIS AUTOMATICALLY GENERATED FILE MAY BE OVERWRITTEN BY SUBSEQUENT SIMULATIONS

*Libraries: 
* Profile Libraries :
* Local Libraries :
* From [PSPICE NETLIST] section of C:\Users\Asad Ur Rehman\AppData\Roaming\SPB_16.6\cdssetup\OrCAD_PSpice\22.1.0\PSpice.ini file:
.lib "nom.lib" 

*Analysis directives: 
.TRAN  0 40ms 0 1e-6 
.OPTIONS ADVCONV
.PROBE64 V(alias(*)) I(alias(*)) W(alias(*)) D(alias(*)) NOISE(alias(*)) 
.INC "..\SCHEMATIC1.net" 



**** INCLUDING SCHEMATIC1.net ****
* source TASK_1
D_D2         0 N01060 D1N3940 
L_L1         N01074 0  200mH  
V_V1         N01060 N01070  
+SIN 0 60 60 0 0 0
R_R1         N01074 N00978  100 TC=0,0 
D_D1         N01060 N00978 D1N3940 
D_D3         0 N01070 D1N3940 
D_D4         N01070 N00978 D1N3940 

**** RESUMING Task_1.cir ****
.END

**** 09/25/24 12:11:56 **** PSpice 22.1.0 (6 October 2022) **** ID# 0 ********

 ** Profile: "SCHEMATIC1-Task_1"  [ c:\users\asad ur rehman\desktop\mid_term\task_1\task_1-PSpiceFiles\SCHEMATIC1\Task_1.sim ] 


 ****     Diode MODEL PARAMETERS


******************************************************************************




               D1N3940         
          IS  400.000000E-12 
           N    1.48         
          BV  600            
         IBV  100.000000E-06 
          RS     .105        
          TT  800.000000E-09 
         CJO   19.500000E-12 
          VJ     .4          
           M     .38         
          FC     .9          
          EG    1.36         
         XTI   -8            


**** 09/25/24 12:11:56 **** PSpice 22.1.0 (6 October 2022) **** ID# 0 ********

 ** Profile: "SCHEMATIC1-Task_1"  [ c:\users\asad ur rehman\desktop\mid_term\task_1\task_1-PSpiceFiles\SCHEMATIC1\Task_1.sim ] 


 ****     INITIAL TRANSIENT SOLUTION       TEMPERATURE =   27.000 DEG C


******************************************************************************



 NODE   VOLTAGE     NODE   VOLTAGE     NODE   VOLTAGE     NODE   VOLTAGE


(N00978)-3.312E-21 (N01060)-320.5E-21 (N01070)-320.5E-21 (N01074)    0.0000 




    VOLTAGE SOURCE CURRENTS
    NAME         CURRENT

    V_V1         0.000E+00

    TOTAL POWER DISSIPATION   0.00E+00  WATTS



          JOB CONCLUDED

**** 09/25/24 12:11:56 **** PSpice 22.1.0 (6 October 2022) **** ID# 0 ********

 ** Profile: "SCHEMATIC1-Task_1"  [ c:\users\asad ur rehman\desktop\mid_term\task_1\task_1-PSpiceFiles\SCHEMATIC1\Task_1.sim ] 


 ****     JOB STATISTICS SUMMARY


******************************************************************************



  License check-out time            =        1.20
  Total job time (using Solver 1)   =         .30
