
**** 09/17/24 18:57:07 **** PSpice 22.1.0 (6 October 2022) **** ID# 0 ********

 ** Profile: "SCHEMATIC1-Task_1"  [ C:\Users\Asad Ur Rehman\Desktop\DC_DC_Converters\Task_1\Task_1-PSpiceFiles\SCHEMATIC1\Task_1.sim 


 ****     CIRCUIT DESCRIPTION


******************************************************************************




** Creating circuit file "Task_1.cir" 
** WARNING: THIS AUTOMATICALLY GENERATED FILE MAY BE OVERWRITTEN BY SUBSEQUENT SIMULATIONS

*Libraries: 
* Profile Libraries :
* Local Libraries :
* From [PSPICE NETLIST] section of C:\Users\Asad Ur Rehman\AppData\Roaming\SPB_16.6\cdssetup\OrCAD_PSpice\22.1.0\PSpice.ini file:
.lib "C:\Users\Asad Ur Rehman\Desktop\ELEC4170_Fall_2024.lib" 
.lib "nom.lib" 

*Analysis directives: 
.TRAN  0 40m 0 1e-6 SKIPBP 
.OPTIONS ADVCONV
.PROBE64 V(alias(*)) I(alias(*)) W(alias(*)) D(alias(*)) NOISE(alias(*)) 
.INC "..\SCHEMATIC1.net" 



**** INCLUDING SCHEMATIC1.net ****
* source TASK_1
V_V1         N00208 0 220Vdc
X_U1         N00208 N00271 N00854 0 AIGBT 
X_U2         N00271 0 0 N00854 AIGBT 
X_U3         N00208 N00275 N00858 0 AIGBT 
X_U4         N00275 0 0 N00858 AIGBT 
X_U5         N00271 N00208 ADIODE 
X_U6         N00275 N00208 ADIODE 
X_U7         0 N00275 ADIODE 
X_U8         0 N00271 ADIODE 
R_R1         N02120 N00271  10 TC=0,0 
X_U9         N00669 N00706 N00854 PWM PARAMS:  VPOS=15 VNEG=-15
X_U10         N00830 N00706 N00858 PWM PARAMS:  VPOS=15 VNEG=-15
V_V2         N00669 0 0.5Vdc
X_U11         N00706 TRIWAV PARAMS:  DELAY=0 DT=1US PERIOD=1MS LEVEL=1V
V_V3         N00830 0 -0.5Vdc
L_L1         N02120 N00275  10mH  

**** RESUMING Task_1.cir ****
.END

**** 09/17/24 18:57:07 **** PSpice 22.1.0 (6 October 2022) **** ID# 0 ********

 ** Profile: "SCHEMATIC1-Task_1"  [ C:\Users\Asad Ur Rehman\Desktop\DC_DC_Converters\Task_1\Task_1-PSpiceFiles\SCHEMATIC1\Task_1.sim 


 ****     Diode MODEL PARAMETERS


******************************************************************************




               X_U5.diode      X_U6.diode      X_U7.diode      X_U8.diode      
          IS   10.000000E-15   10.000000E-15   10.000000E-15   10.000000E-15 
           N    1.000000E-03    1.000000E-03    1.000000E-03    1.000000E-03 
          RS    1.000000E-03    1.000000E-03    1.000000E-03    1.000000E-03 
         CJO  100.000000E-15  100.000000E-15  100.000000E-15  100.000000E-15 


**** 09/17/24 18:57:07 **** PSpice 22.1.0 (6 October 2022) **** ID# 0 ********

 ** Profile: "SCHEMATIC1-Task_1"  [ C:\Users\Asad Ur Rehman\Desktop\DC_DC_Converters\Task_1\Task_1-PSpiceFiles\SCHEMATIC1\Task_1.sim 


 ****     Voltage Controlled Switch MODEL PARAMETERS


******************************************************************************




               X_U1.igbt       X_U2.igbt       X_U3.igbt       X_U4.igbt       
         RON    1.000000E-03    1.000000E-03    1.000000E-03    1.000000E-03 
        ROFF  100.000000E+03  100.000000E+03  100.000000E+03  100.000000E+03 
         VON     .1              .1              .1              .1          
        VOFF    0               0               0               0            


WARNING(ORPSIM-15452): Pulse Period < (Rise Time + Fall Time + Pulse Width) for X_U11.VRAMP.

WARNING(ORPSIM-15452): Pulse Period < (Rise Time + Fall Time + Pulse Width) for X_U11.VRAMP.


          JOB CONCLUDED

**** 09/17/24 18:57:07 **** PSpice 22.1.0 (6 October 2022) **** ID# 0 ********

 ** Profile: "SCHEMATIC1-Task_1"  [ C:\Users\Asad Ur Rehman\Desktop\DC_DC_Converters\Task_1\Task_1-PSpiceFiles\SCHEMATIC1\Task_1.sim 


 ****     JOB STATISTICS SUMMARY


******************************************************************************



  License check-out time            =       38.87
  Total job time (using Solver 1)   =        7.70
